ZZZ
 OpenBabel07221416063D

 23 24  0  0  1  0  0  0  0  0999 V2000
   -2.1460    1.3270   -0.9990 C   0  0  0  0  0  0  0  0  0  0  0  0
   -0.9240    1.7790   -0.3180 N   0  0  0  0  0  0  0  0  0  0  0  0
    0.1460    0.9050   -0.2050 C   0  0  0  0  0  0  0  0  0  0  0  0
    1.3690    1.3630    0.0890 N   0  0  0  0  0  0  0  0  0  0  0  0
    2.3900    0.5410    0.2050 C   0  0  0  0  0  0  0  0  0  0  0  0
    3.6280    1.0510    0.5080 N   0  0  0  0  0  0  0  0  0  0  0  0
   -0.0500   -0.4550   -0.3930 C   0  0  0  0  0  0  0  0  0  0  0  0
    1.0400   -1.3230   -0.2680 C   0  0  0  0  0  0  0  0  0  0  0  0
    2.2500   -0.8000    0.0270 N   0  0  0  0  0  0  0  0  0  0  0  0
    0.9020   -2.5270   -0.4260 O   0  0  0  0  0  0  0  0  0  0  0  0
   -1.3350   -0.9490   -0.7080 N   0  0  0  0  0  0  0  0  0  0  0  0
   -2.4970   -0.0750   -0.4810 C   0  0  1  0  0  0  0  0  0  0  0  0
   -2.8070   -0.0120    0.9920 C   0  0  0  0  0  0  0  0  0  0  0  0
   -2.1310   -0.6310    1.7790 O   0  0  0  0  0  0  0  0  0  0  0  0
   -1.9740    1.2890   -2.0750 H   0  0  0  0  0  0  0  0  0  0  0  0
   -2.9630    2.0150   -0.7810 H   0  0  0  0  0  0  0  0  0  0  0  0
   -0.8670    2.6770    0.0460 H   0  0  0  0  0  0  0  0  0  0  0  0
    3.7420    2.0060    0.6340 H   0  0  0  0  0  0  0  0  0  0  0  0
    4.3880    0.4550    0.6000 H   0  0  0  0  0  0  0  0  0  0  0  0
    3.0200   -1.3840    0.1200 H   0  0  0  0  0  0  0  0  0  0  0  0
   -1.4490   -1.8440   -1.0650 H   0  0  0  0  0  0  0  0  0  0  0  0
   -3.3600   -0.4620   -1.0230 H   0  0  0  0  0  0  0  0  0  0  0  0
   -3.6340    0.5870    1.3450 H   0  0  0  0  0  0  0  0  0  0  0  0
  1  2  1  0  0  0  0
  1 12  1  0  0  0  0
  1 15  1  0  0  0  0
  1 16  1  0  0  0  0
  2  3  1  0  0  0  0
  2 17  1  0  0  0  0
  3  4  1  0  0  0  0
  3  7  2  0  0  0  0
  4  5  2  0  0  0  0
  5  6  1  0  0  0  0
  5  9  1  0  0  0  0
  6 18  1  0  0  0  0
  6 19  1  0  0  0  0
  7  8  1  0  0  0  0
  7 11  1  0  0  0  0
  8  9  1  0  0  0  0
  8 10  2  0  0  0  0
  9 20  1  0  0  0  0
 11 12  1  0  0  0  0
 11 21  1  0  0  0  0
 12 13  1  0  0  0  0
 12 22  1  6  0  0  0
 13 14  2  0  0  0  0
 13 23  1  0  0  0  0
M  END
$$$$
B62
 OpenBabel07221416063D

 24 25  0  0  1  0  0  0  0  0999 V2000
    0.8280   -2.5660    0.1360 O   0  0  0  0  0  0  0  0  0  0  0  0
    0.9270   -1.3490    0.0910 C   0  0  0  0  0  0  0  0  0  0  0  0
    2.1320   -0.7580   -0.0630 N   0  0  0  0  0  0  0  0  0  0  0  0
   -0.2070   -0.5360    0.1910 C   0  0  0  0  0  0  0  0  0  0  0  0
   -1.4910   -1.1020    0.3490 N   0  0  0  0  0  0  0  0  0  0  0  0
   -2.6680   -0.2540    0.0980 C   0  0  2  0  0  0  0  0  0  0  0  0
   -2.8590   -0.0690   -1.4090 C   0  0  0  0  0  0  0  0  0  0  0  0
   -2.4220    1.1090    0.7610 C   0  0  0  0  0  0  0  0  0  0  0  0
   -1.1690    1.6630    0.2290 N   0  0  0  0  0  0  0  0  0  0  0  0
   -0.0560    0.8430    0.1350 C   0  0  0  0  0  0  0  0  0  0  0  0
    1.1660    1.3690   -0.0100 N   0  0  0  0  0  0  0  0  0  0  0  0
    2.2280    0.5980   -0.1100 C   0  0  0  0  0  0  0  0  0  0  0  0
    3.4620    1.1770   -0.2640 N   0  0  0  0  0  0  0  0  0  0  0  0
    2.9310   -1.3030   -0.1400 H   0  0  0  0  0  0  0  0  0  0  0  0
   -1.5960   -2.0280    0.6170 H   0  0  0  0  0  0  0  0  0  0  0  0
   -3.5550   -0.7190    0.5270 H   0  0  0  0  0  0  0  0  0  0  0  0
   -3.0080   -1.0410   -1.8790 H   0  0  0  0  0  0  0  0  0  0  0  0
   -3.7310    0.5600   -1.5900 H   0  0  0  0  0  0  0  0  0  0  0  0
   -1.9740    0.4070   -1.8320 H   0  0  0  0  0  0  0  0  0  0  0  0
   -3.2480    1.7830    0.5320 H   0  0  0  0  0  0  0  0  0  0  0  0
   -2.3390    0.9830    1.8400 H   0  0  0  0  0  0  0  0  0  0  0  0
   -1.1220    2.5910   -0.0520 H   0  0  0  0  0  0  0  0  0  0  0  0
    4.2530    0.6200   -0.3380 H   0  0  0  0  0  0  0  0  0  0  0  0
    3.5440    2.1430   -0.2990 H   0  0  0  0  0  0  0  0  0  0  0  0
  1  2  2  0  0  0  0
  2  3  1  0  0  0  0
  2  4  1  0  0  0  0
  3 12  1  0  0  0  0
  3 14  1  0  0  0  0
  4  5  1  0  0  0  0
  4 10  2  0  0  0  0
  5  6  1  0  0  0  0
  5 15  1  0  0  0  0
  6  7  1  0  0  0  0
  6  8  1  0  0  0  0
  6 16  1  1  0  0  0
  7 17  1  0  0  0  0
  7 18  1  0  0  0  0
  7 19  1  0  0  0  0
  8  9  1  0  0  0  0
  8 20  1  0  0  0  0
  8 21  1  0  0  0  0
  9 10  1  0  0  0  0
  9 22  1  0  0  0  0
 10 11  1  0  0  0  0
 11 12  2  0  0  0  0
 12 13  1  0  0  0  0
 13 23  1  0  0  0  0
 13 24  1  0  0  0  0
M  END
$$$$
2K8
 OpenBabel07221416063D

 24 25  0  0  1  0  0  0  0  0999 V2000
   -3.8450    0.2280    0.9190 O   0  0  0  0  0  0  0  0  0  0  0  0
   -2.5790   -0.1270    0.6510 C   0  0  0  0  0  0  0  0  0  0  0  0
   -1.8000   -0.3150    1.5550 O   0  0  0  0  0  0  0  0  0  0  0  0
   -2.1290   -0.2910   -0.7780 C   0  0  2  0  0  0  0  0  0  0  0  0
   -0.9110   -1.1170   -0.8250 N   0  0  0  0  0  0  0  0  0  0  0  0
    0.3150   -0.5320   -0.4380 C   0  0  0  0  0  0  0  0  0  0  0  0
   -1.7940    1.0830   -1.3770 C   0  0  0  0  0  0  0  0  0  0  0  0
   -0.6640    1.6520   -0.6280 N   0  0  0  0  0  0  0  0  0  0  0  0
    0.4290    0.8480   -0.3450 C   0  0  0  0  0  0  0  0  0  0  0  0
    1.5960    1.3910    0.0190 N   0  0  0  0  0  0  0  0  0  0  0  0
    2.6390    0.6370    0.2930 C   0  0  0  0  0  0  0  0  0  0  0  0
    3.8180    1.2340    0.6630 N   0  0  0  0  0  0  0  0  0  0  0  0
    2.5770   -0.7200    0.2190 N   0  0  0  0  0  0  0  0  0  0  0  0
    1.4270   -1.3280   -0.1450 C   0  0  0  0  0  0  0  0  0  0  0  0
    1.3600   -2.5460   -0.2160 O   0  0  0  0  0  0  0  0  0  0  0  0
   -4.0880    0.3200    1.8500 H   0  0  0  0  0  0  0  0  0  0  0  0
   -2.9180   -0.7650   -1.3610 H   0  0  0  0  0  0  0  0  0  0  0  0
   -0.9510   -2.0420   -1.1140 H   0  0  0  0  0  0  0  0  0  0  0  0
   -1.5190    0.9700   -2.4260 H   0  0  0  0  0  0  0  0  0  0  0  0
   -2.6590    1.7410   -1.2930 H   0  0  0  0  0  0  0  0  0  0  0  0
   -0.6830    2.5770   -0.3360 H   0  0  0  0  0  0  0  0  0  0  0  0
    3.8750    2.2010    0.7200 H   0  0  0  0  0  0  0  0  0  0  0  0
    4.5940    0.6890    0.8670 H   0  0  0  0  0  0  0  0  0  0  0  0
    3.3610   -1.2530    0.4280 H   0  0  0  0  0  0  0  0  0  0  0  0
  1 16  1  0  0  0  0
  2  1  1  0  0  0  0
  3  2  2  0  0  0  0
  4  2  1  0  0  0  0
  4  5  1  0  0  0  0
  4 17  1  6  0  0  0
  5  6  1  0  0  0  0
  5 18  1  0  0  0  0
  6 14  1  0  0  0  0
  7  8  1  0  0  0  0
  7  4  1  0  0  0  0
  7 19  1  0  0  0  0
  7 20  1  0  0  0  0
  8  9  1  0  0  0  0
  8 21  1  0  0  0  0
  9 10  1  0  0  0  0
  9  6  2  0  0  0  0
 10 11  2  0  0  0  0
 11 12  1  0  0  0  0
 11 13  1  0  0  0  0
 12 22  1  0  0  0  0
 12 23  1  0  0  0  0
 13 24  1  0  0  0  0
 14 13  1  0  0  0  0
 14 15  2  0  0  0  0
M  END
$$$$
03O
 OpenBabel07221416063D

 42 44  0  0  1  0  0  0  0  0999 V2000
    3.6580   -1.3040    1.1970 N   0  0  0  0  0  0  0  0  0  0  0  0
    3.9680   -2.0830    0.1830 C   0  0  0  0  0  0  0  0  0  0  0  0
    4.5940   -3.2800    0.4250 N   0  0  0  0  0  0  0  0  0  0  0  0
    3.6810   -1.7320   -1.1000 N   0  0  0  0  0  0  0  0  0  0  0  0
    3.0670   -0.5570   -1.3610 C   0  0  0  0  0  0  0  0  0  0  0  0
    2.8070   -0.2300   -2.5100 O   0  0  0  0  0  0  0  0  0  0  0  0
    2.7360    0.2760   -0.2880 C   0  0  0  0  0  0  0  0  0  0  0  0
    2.0950    1.5160   -0.5060 N   0  0  0  0  0  0  0  0  0  0  0  0
    1.4540    2.1850    0.6380 C   0  0  2  0  0  0  0  0  0  0  0  0
    2.4100    2.0970    1.8370 C   0  0  0  0  0  0  0  0  0  0  0  0
    2.7200    0.6810    2.0780 N   0  0  0  0  0  0  0  0  0  0  0  0
    3.0460   -0.1300    1.0020 C   0  0  0  0  0  0  0  0  0  0  0  0
    0.1360    1.4850    0.9740 C   0  0  0  0  0  0  0  0  0  0  0  0
   -0.7110    1.4380   -0.2200 N   0  0  0  0  0  0  0  0  0  0  0  0
    2.0700    2.1220   -1.8390 C   0  0  0  0  0  0  0  0  0  0  0  0
   -4.4650   -0.3360   -0.0370 C   0  0  0  0  0  0  0  0  0  0  0  0
   -4.0090    0.2160   -1.2380 C   0  0  0  0  0  0  0  0  0  0  0  0
   -2.7700    0.8010   -1.2950 C   0  0  0  0  0  0  0  0  0  0  0  0
   -1.9660    0.8450   -0.1590 C   0  0  0  0  0  0  0  0  0  0  0  0
   -2.4180    0.2960    1.0380 C   0  0  0  0  0  0  0  0  0  0  0  0
   -3.6550   -0.2900    1.1020 C   0  0  0  0  0  0  0  0  0  0  0  0
   -5.7990   -0.9600    0.0290 C   0  0  0  0  0  0  0  0  0  0  0  0
   -6.5030   -0.9940   -0.9600 O   0  0  0  0  0  0  0  0  0  0  0  0
    4.8030   -3.5420    1.3360 H   0  0  0  0  0  0  0  0  0  0  0  0
    4.8280   -3.8630   -0.3130 H   0  0  0  0  0  0  0  0  0  0  0  0
    3.9190   -2.3260   -1.8290 H   0  0  0  0  0  0  0  0  0  0  0  0
    1.2650    3.2310    0.3940 H   0  0  0  0  0  0  0  0  0  0  0  0
    3.3280    2.6420    1.6160 H   0  0  0  0  0  0  0  0  0  0  0  0
    1.9320    2.5240    2.7190 H   0  0  0  0  0  0  0  0  0  0  0  0
    2.6980    0.3190    2.9780 H   0  0  0  0  0  0  0  0  0  0  0  0
    0.3410    0.4700    1.3150 H   0  0  0  0  0  0  0  0  0  0  0  0
   -0.3770    2.0360    1.7620 H   0  0  0  0  0  0  0  0  0  0  0  0
   -0.3950    1.8210   -1.0540 H   0  0  0  0  0  0  0  0  0  0  0  0
    1.4870    1.4930   -2.5130 H   0  0  0  0  0  0  0  0  0  0  0  0
    1.6150    3.1110   -1.7800 H   0  0  0  0  0  0  0  0  0  0  0  0
    3.0880    2.2130   -2.2170 H   0  0  0  0  0  0  0  0  0  0  0  0
   -4.6320    0.1820   -2.1200 H   0  0  0  0  0  0  0  0  0  0  0  0
   -2.4170    1.2280   -2.2220 H   0  0  0  0  0  0  0  0  0  0  0  0
   -1.7920    0.3310    1.9180 H   0  0  0  0  0  0  0  0  0  0  0  0
   -4.0050   -0.7160    2.0310 H   0  0  0  0  0  0  0  0  0  0  0  0
   -6.2370   -1.4920    1.1870 O   0  0  0  0  0  0  0  0  0  0  0  0
   -7.1180   -1.8900    1.1820 H   0  0  0  0  0  0  0  0  0  0  0  0
  1  2  2  0  0  0  0
  1 12  1  0  0  0  0
  2  3  1  0  0  0  0
  2  4  1  0  0  0  0
  3 24  1  0  0  0  0
  3 25  1  0  0  0  0
  4  5  1  0  0  0  0
  4 26  1  0  0  0  0
  5  6  2  0  0  0  0
  5  7  1  0  0  0  0
  7  8  1  0  0  0  0
  7 12  2  0  0  0  0
  8  9  1  0  0  0  0
  8 15  1  0  0  0  0
  9 10  1  0  0  0  0
  9 13  1  0  0  0  0
  9 27  1  6  0  0  0
 10 11  1  0  0  0  0
 10 28  1  0  0  0  0
 10 29  1  0  0  0  0
 11 12  1  0  0  0  0
 11 30  1  0  0  0  0
 13 14  1  0  0  0  0
 13 31  1  0  0  0  0
 13 32  1  0  0  0  0
 14 19  1  0  0  0  0
 14 33  1  0  0  0  0
 15 34  1  0  0  0  0
 15 35  1  0  0  0  0
 15 36  1  0  0  0  0
 16 17  2  0  0  0  0
 16 21  1  0  0  0  0
 16 22  1  0  0  0  0
 17 18  1  0  0  0  0
 17 37  1  0  0  0  0
 18 19  2  0  0  0  0
 18 38  1  0  0  0  0
 19 20  1  0  0  0  0
 20 21  2  0  0  0  0
 20 39  1  0  0  0  0
 21 40  1  0  0  0  0
 22 23  2  0  0  0  0
 22 41  1  0  0  0  0
 41 42  1  0  0  0  0
M  END
$$$$
THB
 OpenBabel07221416063D

 32 33  0  0  1  0  0  0  0  0999 V2000
   -1.2070    0.5640   -2.2160 N   0  0  0  0  0  0  0  0  0  0  0  0
   -0.4060    1.2850   -4.2690 N   0  0  0  0  0  0  0  0  0  0  0  0
   -0.2130    0.6360   -3.0750 C   0  0  0  0  0  0  0  0  0  0  0  0
    1.0000    0.0820   -2.8090 N   0  0  0  0  0  0  0  0  0  0  0  0
    1.2110   -0.5620   -1.6410 C   0  0  0  0  0  0  0  0  0  0  0  0
    2.2970   -1.0640   -1.3920 O   0  0  0  0  0  0  0  0  0  0  0  0
    0.1580   -0.6420   -0.7230 C   0  0  0  0  0  0  0  0  0  0  0  0
   -1.0590   -0.0590   -1.0410 C   0  0  0  0  0  0  0  0  0  0  0  0
   -2.1120   -0.1250   -0.1420 N   0  0  0  0  0  0  0  0  0  0  0  0
   -2.0610   -1.1130    0.9440 C   0  0  0  0  0  0  0  0  0  0  0  0
   -0.6620   -1.0660    1.5750 C   0  0  1  0  0  0  0  0  0  0  0  0
    0.3260   -1.3060    0.5120 N   0  0  0  0  0  0  0  0  0  0  0  0
   -0.4230    0.3080    2.2020 C   0  0  1  0  0  0  0  0  0  0  0  0
   -1.3960    0.5420    3.2230 O   0  0  0  0  0  0  0  0  0  0  0  0
    0.9780    0.3530    2.8140 C   0  0  1  0  0  0  0  0  0  0  0  0
    1.9510    0.1190    1.7930 O   0  0  0  0  0  0  0  0  0  0  0  0
    1.2170    1.7280    3.4410 C   0  0  0  0  0  0  0  0  0  0  0  0
   -1.2670    1.6830   -4.4710 H   0  0  0  0  0  0  0  0  0  0  0  0
    0.3180    1.3450   -4.9110 H   0  0  0  0  0  0  0  0  0  0  0  0
    1.7170    0.1510   -3.4600 H   0  0  0  0  0  0  0  0  0  0  0  0
   -2.8720    0.4710   -0.2290 H   0  0  0  0  0  0  0  0  0  0  0  0
   -2.2510   -2.1090    0.5450 H   0  0  0  0  0  0  0  0  0  0  0  0
   -2.8110   -0.8700    1.6970 H   0  0  0  0  0  0  0  0  0  0  0  0
   -0.5760   -1.8390    2.3390 H   0  0  0  0  0  0  0  0  0  0  0  0
    1.0740   -1.9070    0.6550 H   0  0  0  0  0  0  0  0  0  0  0  0
   -0.5090    1.0770    1.4350 H   0  0  0  0  0  0  0  0  0  0  0  0
   -1.2850   -0.1580    3.8800 H   0  0  0  0  0  0  0  0  0  0  0  0
    1.0650   -0.4150    3.5810 H   0  0  0  0  0  0  0  0  0  0  0  0
    1.8400    0.8200    1.1360 H   0  0  0  0  0  0  0  0  0  0  0  0
    2.2160    1.7600    3.8760 H   0  0  0  0  0  0  0  0  0  0  0  0
    1.1300    2.4970    2.6730 H   0  0  0  0  0  0  0  0  0  0  0  0
    0.4750    1.9060    4.2190 H   0  0  0  0  0  0  0  0  0  0  0  0
  1  3  2  0  0  0  0
  1  8  1  0  0  0  0
  2  3  1  0  0  0  0
  2 18  1  0  0  0  0
  2 19  1  0  0  0  0
  3  4  1  0  0  0  0
  4  5  1  0  0  0  0
  4 20  1  0  0  0  0
  5  6  2  0  0  0  0
  5  7  1  0  0  0  0
  7  8  2  0  0  0  0
  7 12  1  0  0  0  0
  8  9  1  0  0  0  0
  9 10  1  0  0  0  0
  9 21  1  0  0  0  0
 10 11  1  0  0  0  0
 10 22  1  0  0  0  0
 10 23  1  0  0  0  0
 11 12  1  0  0  0  0
 11 13  1  0  0  0  0
 11 24  1  1  0  0  0
 12 25  1  0  0  0  0
 13 14  1  0  0  0  0
 13 15  1  0  0  0  0
 13 26  1  6  0  0  0
 14 27  1  0  0  0  0
 15 16  1  0  0  0  0
 15 17  1  0  0  0  0
 15 28  1  1  0  0  0
 16 29  1  0  0  0  0
 17 30  1  0  0  0  0
 17 31  1  0  0  0  0
 17 32  1  0  0  0  0
M  END
$$$$
H4B
 OpenBabel07221416063D

 32 33  0  0  1  0  0  0  0  0999 V2000
   -1.2070    0.5640   -2.2160 N   0  0  0  0  0  0  0  0  0  0  0  0
   -0.2130    0.6360   -3.0750 C   0  0  0  0  0  0  0  0  0  0  0  0
   -0.4060    1.2850   -4.2690 N   0  0  0  0  0  0  0  0  0  0  0  0
    1.0000    0.0820   -2.8090 N   0  0  0  0  0  0  0  0  0  0  0  0
    1.2110   -0.5620   -1.6410 C   0  0  0  0  0  0  0  0  0  0  0  0
    2.2970   -1.0640   -1.3920 O   0  0  0  0  0  0  0  0  0  0  0  0
    0.1580   -0.6420   -0.7230 C   0  0  0  0  0  0  0  0  0  0  0  0
   -1.0590   -0.0590   -1.0410 C   0  0  0  0  0  0  0  0  0  0  0  0
    0.3260   -1.3060    0.5120 N   0  0  0  0  0  0  0  0  0  0  0  0
   -2.1120   -0.1250   -0.1420 N   0  0  0  0  0  0  0  0  0  0  0  0
   -0.6620   -1.0660    1.5750 C   0  0  2  0  0  0  0  0  0  0  0  0
   -2.0610   -1.1130    0.9440 C   0  0  0  0  0  0  0  0  0  0  0  0
   -0.4230    0.3080    2.2020 C   0  0  1  0  0  0  0  0  0  0  0  0
   -1.3960    0.5420    3.2230 O   0  0  0  0  0  0  0  0  0  0  0  0
    0.9780    0.3530    2.8140 C   0  0  2  0  0  0  0  0  0  0  0  0
    1.2170    1.7280    3.4410 C   0  0  0  0  0  0  0  0  0  0  0  0
    1.9510    0.1190    1.7930 O   0  0  0  0  0  0  0  0  0  0  0  0
   -1.2670    1.6830   -4.4710 H   0  0  0  0  0  0  0  0  0  0  0  0
    0.3180    1.3450   -4.9110 H   0  0  0  0  0  0  0  0  0  0  0  0
    1.7170    0.1510   -3.4600 H   0  0  0  0  0  0  0  0  0  0  0  0
    1.0740   -1.9070    0.6550 H   0  0  0  0  0  0  0  0  0  0  0  0
   -2.8720    0.4710   -0.2290 H   0  0  0  0  0  0  0  0  0  0  0  0
   -0.5760   -1.8390    2.3390 H   0  0  0  0  0  0  0  0  0  0  0  0
   -2.2510   -2.1090    0.5450 H   0  0  0  0  0  0  0  0  0  0  0  0
   -2.8110   -0.8700    1.6970 H   0  0  0  0  0  0  0  0  0  0  0  0
   -0.5090    1.0770    1.4350 H   0  0  0  0  0  0  0  0  0  0  0  0
   -1.2850   -0.1580    3.8800 H   0  0  0  0  0  0  0  0  0  0  0  0
    1.0650   -0.4150    3.5810 H   0  0  0  0  0  0  0  0  0  0  0  0
    2.2160    1.7600    3.8760 H   0  0  0  0  0  0  0  0  0  0  0  0
    1.1300    2.4970    2.6730 H   0  0  0  0  0  0  0  0  0  0  0  0
    0.4750    1.9060    4.2190 H   0  0  0  0  0  0  0  0  0  0  0  0
    1.8400    0.8200    1.1360 H   0  0  0  0  0  0  0  0  0  0  0  0
  1  2  2  0  0  0  0
  1  8  1  0  0  0  0
  2  3  1  0  0  0  0
  2  4  1  0  0  0  0
  3 18  1  0  0  0  0
  3 19  1  0  0  0  0
  4  5  1  0  0  0  0
  4 20  1  0  0  0  0
  5  6  2  0  0  0  0
  5  7  1  0  0  0  0
  7  8  2  0  0  0  0
  7  9  1  0  0  0  0
  8 10  1  0  0  0  0
  9 11  1  0  0  0  0
  9 21  1  0  0  0  0
 10 12  1  0  0  0  0
 10 22  1  0  0  0  0
 11 12  1  0  0  0  0
 11 13  1  0  0  0  0
 11 23  1  1  0  0  0
 12 24  1  0  0  0  0
 12 25  1  0  0  0  0
 13 14  1  0  0  0  0
 13 15  1  0  0  0  0
 13 26  1  6  0  0  0
 14 27  1  0  0  0  0
 15 16  1  0  0  0  0
 15 17  1  0  0  0  0
 15 28  1  1  0  0  0
 16 29  1  0  0  0  0
 16 30  1  0  0  0  0
 16 31  1  0  0  0  0
 17 32  1  0  0  0  0
M  END
$$$$
BHS
 OpenBabel07221416063D

 32 33  0  0  1  0  0  0  0  0999 V2000
   -1.0740    0.3840   -2.3210 N   0  0  0  0  0  0  0  0  0  0  0  0
   -0.0260    0.5090   -3.1060 C   0  0  0  0  0  0  0  0  0  0  0  0
   -0.1770    1.0980   -4.3360 N   0  0  0  0  0  0  0  0  0  0  0  0
    1.2040    0.0680   -2.7290 N   0  0  0  0  0  0  0  0  0  0  0  0
    1.3750   -0.5150   -1.5230 C   0  0  0  0  0  0  0  0  0  0  0  0
    2.4750   -0.9170   -1.1730 O   0  0  0  0  0  0  0  0  0  0  0  0
    0.2650   -0.6510   -0.6830 C   0  0  0  0  0  0  0  0  0  0  0  0
   -0.9670   -0.1830   -1.1140 C   0  0  0  0  0  0  0  0  0  0  0  0
    0.3890   -1.2560    0.5870 N   0  0  0  0  0  0  0  0  0  0  0  0
   -0.6940   -1.0620    1.5640 C   0  0  2  0  0  0  0  0  0  0  0  0
   -2.0320   -1.2470    0.8340 C   0  0  0  0  0  0  0  0  0  0  0  0
   -2.0780   -0.3050   -0.2930 N   0  0  0  0  0  0  0  0  0  0  0  0
   -0.6150    0.3480    2.1500 C   0  0  2  0  0  0  0  0  0  0  0  0
   -0.7310    1.3080    1.0980 O   0  0  0  0  0  0  0  0  0  0  0  0
    0.7260    0.5310    2.8620 C   0  0  2  0  0  0  0  0  0  0  0  0
    0.8420   -0.4290    3.9140 O   0  0  0  0  0  0  0  0  0  0  0  0
    0.8050    1.9420    3.4480 C   0  0  0  0  0  0  0  0  0  0  0  0
   -1.0490    1.4160   -4.6170 H   0  0  0  0  0  0  0  0  0  0  0  0
    0.5870    1.1960   -4.9240 H   0  0  0  0  0  0  0  0  0  0  0  0
    1.9610    0.1740   -3.3270 H   0  0  0  0  0  0  0  0  0  0  0  0
    1.1700   -1.7870    0.8100 H   0  0  0  0  0  0  0  0  0  0  0  0
   -0.6050   -1.7990    2.3630 H   0  0  0  0  0  0  0  0  0  0  0  0
   -2.1090   -2.2690    0.4620 H   0  0  0  0  0  0  0  0  0  0  0  0
   -2.8550   -1.0410    1.5180 H   0  0  0  0  0  0  0  0  0  0  0  0
   -2.8740    0.2220   -0.4610 H   0  0  0  0  0  0  0  0  0  0  0  0
   -1.4270    0.4900    2.8640 H   0  0  0  0  0  0  0  0  0  0  0  0
    0.0030    1.1470    0.4910 H   0  0  0  0  0  0  0  0  0  0  0  0
    1.5380    0.3880    2.1480 H   0  0  0  0  0  0  0  0  0  0  0  0
    0.1070   -0.2680    4.5210 H   0  0  0  0  0  0  0  0  0  0  0  0
    1.7610    2.0720    3.9550 H   0  0  0  0  0  0  0  0  0  0  0  0
    0.7160    2.6740    2.6450 H   0  0  0  0  0  0  0  0  0  0  0  0
   -0.0060    2.0840    4.1610 H   0  0  0  0  0  0  0  0  0  0  0  0
  1  2  2  0  0  0  0
  1  8  1  0  0  0  0
  2  3  1  0  0  0  0
  2  4  1  0  0  0  0
  3 18  1  0  0  0  0
  3 19  1  0  0  0  0
  4  5  1  0  0  0  0
  4 20  1  0  0  0  0
  5  6  2  0  0  0  0
  5  7  1  0  0  0  0
  7  8  2  0  0  0  0
  7  9  1  0  0  0  0
  8 12  1  0  0  0  0
  9 10  1  0  0  0  0
  9 21  1  0  0  0  0
 10 11  1  0  0  0  0
 10 13  1  0  0  0  0
 10 22  1  1  0  0  0
 11 12  1  0  0  0  0
 11 23  1  0  0  0  0
 11 24  1  0  0  0  0
 12 25  1  0  0  0  0
 13 14  1  0  0  0  0
 13 15  1  0  0  0  0
 13 26  1  1  0  0  0
 14 27  1  0  0  0  0
 15 16  1  0  0  0  0
 15 17  1  0  0  0  0
 15 28  1  6  0  0  0
 16 29  1  0  0  0  0
 17 30  1  0  0  0  0
 17 31  1  0  0  0  0
 17 32  1  0  0  0  0
M  END
$$$$
BH4
 OpenBabel07221416063D

 32 33  0  0  1  0  0  0  0  0999 V2000
   -1.2070    0.5640   -2.2160 N   0  0  0  0  0  0  0  0  0  0  0  0
   -0.2130    0.6360   -3.0750 C   0  0  0  0  0  0  0  0  0  0  0  0
   -2.1120   -0.1250   -0.1420 N   0  0  0  0  0  0  0  0  0  0  0  0
   -2.0610   -1.1130    0.9440 C   0  0  0  0  0  0  0  0  0  0  0  0
   -0.6620   -1.0660    1.5750 C   0  0  1  0  0  0  0  0  0  0  0  0
    0.3260   -1.3060    0.5120 N   0  0  0  0  0  0  0  0  0  0  0  0
    1.2110   -0.5620   -1.6410 C   0  0  0  0  0  0  0  0  0  0  0  0
    1.0000    0.0820   -2.8090 N   0  0  0  0  0  0  0  0  0  0  0  0
   -1.0590   -0.0590   -1.0410 C   0  0  0  0  0  0  0  0  0  0  0  0
    0.1580   -0.6420   -0.7230 C   0  0  0  0  0  0  0  0  0  0  0  0
    1.2170    1.7280    3.4410 C   0  0  0  0  0  0  0  0  0  0  0  0
    1.9510    0.1190    1.7930 O   0  0  0  0  0  0  0  0  0  0  0  0
    0.9780    0.3530    2.8140 C   0  0  2  0  0  0  0  0  0  0  0  0
   -0.4060    1.2850   -4.2690 N   0  0  0  0  0  0  0  0  0  0  0  0
    2.2970   -1.0640   -1.3920 O   0  0  0  0  0  0  0  0  0  0  0  0
   -0.4230    0.3080    2.2020 C   0  0  2  0  0  0  0  0  0  0  0  0
   -1.3960    0.5420    3.2230 O   0  0  0  0  0  0  0  0  0  0  0  0
   -2.8720    0.4710   -0.2290 H   0  0  0  0  0  0  0  0  0  0  0  0
   -2.2510   -2.1090    0.5450 H   0  0  0  0  0  0  0  0  0  0  0  0
   -2.8110   -0.8700    1.6970 H   0  0  0  0  0  0  0  0  0  0  0  0
   -0.5760   -1.8390    2.3390 H   0  0  0  0  0  0  0  0  0  0  0  0
    1.0740   -1.9070    0.6550 H   0  0  0  0  0  0  0  0  0  0  0  0
    1.7170    0.1510   -3.4600 H   0  0  0  0  0  0  0  0  0  0  0  0
    2.2160    1.7600    3.8760 H   0  0  0  0  0  0  0  0  0  0  0  0
    1.1300    2.4970    2.6730 H   0  0  0  0  0  0  0  0  0  0  0  0
    0.4750    1.9060    4.2190 H   0  0  0  0  0  0  0  0  0  0  0  0
    1.8400    0.8200    1.1360 H   0  0  0  0  0  0  0  0  0  0  0  0
    1.0650   -0.4150    3.5810 H   0  0  0  0  0  0  0  0  0  0  0  0
   -1.2670    1.6830   -4.4710 H   0  0  0  0  0  0  0  0  0  0  0  0
    0.3180    1.3450   -4.9110 H   0  0  0  0  0  0  0  0  0  0  0  0
   -0.5090    1.0770    1.4350 H   0  0  0  0  0  0  0  0  0  0  0  0
   -1.2850   -0.1580    3.8800 H   0  0  0  0  0  0  0  0  0  0  0  0
  1  2  2  0  0  0  0
  1  9  1  0  0  0  0
  2  8  1  0  0  0  0
  2 14  1  0  0  0  0
  3  4  1  0  0  0  0
  3  9  1  0  0  0  0
  3 18  1  0  0  0  0
  4  5  1  0  0  0  0
  4 19  1  0  0  0  0
  4 20  1  0  0  0  0
  5  6  1  0  0  0  0
  5 16  1  0  0  0  0
  5 21  1  1  0  0  0
  6 10  1  0  0  0  0
  6 22  1  0  0  0  0
  7  8  1  0  0  0  0
  7 10  1  0  0  0  0
  7 15  2  0  0  0  0
  8 23  1  0  0  0  0
  9 10  2  0  0  0  0
 11 13  1  0  0  0  0
 11 24  1  0  0  0  0
 11 25  1  0  0  0  0
 11 26  1  0  0  0  0
 12 13  1  0  0  0  0
 12 27  1  0  0  0  0
 13 16  1  0  0  0  0
 13 28  1  1  0  0  0
 14 29  1  0  0  0  0
 14 30  1  0  0  0  0
 16 17  1  0  0  0  0
 16 31  1  6  0  0  0
 17 32  1  0  0  0  0
M  END
$$$$
4AB
 OpenBabel07221416063D

 33 34  0  0  1  0  0  0  0  0999 V2000
   -1.3370    0.1030   -2.5960 N   0  0  0  0  0  0  0  0  0  0  0  0
   -0.4960   -0.1410   -3.5890 C   0  0  0  0  0  0  0  0  0  0  0  0
   -0.9890   -0.2630   -4.8790 N   0  0  0  0  0  0  0  0  0  0  0  0
    0.8040   -0.2720   -3.3800 N   0  0  0  0  0  0  0  0  0  0  0  0
    1.3170   -0.1580   -2.1580 C   0  0  0  0  0  0  0  0  0  0  0  0
    2.6840   -0.2970   -1.9520 N   0  0  0  0  0  0  0  0  0  0  0  0
    0.4610    0.1040   -1.0820 C   0  0  0  0  0  0  0  0  0  0  0  0
   -0.8960    0.2260   -1.3470 C   0  0  0  0  0  0  0  0  0  0  0  0
    1.0050    0.2410    0.2010 N   0  0  0  0  0  0  0  0  0  0  0  0
   -1.7990    0.4760   -0.3150 N   0  0  0  0  0  0  0  0  0  0  0  0
   -0.0070   -0.0900    1.2030 C   0  0  2  0  0  0  0  0  0  0  0  0
   -1.2350    0.8080    1.0050 C   0  0  0  0  0  0  0  0  0  0  0  0
    0.5670    0.1330    2.6030 C   0  0  1  0  0  0  0  0  0  0  0  0
    0.8370    1.5240    2.7910 O   0  0  0  0  0  0  0  0  0  0  0  0
   -0.4440   -0.3350    3.6510 C   0  0  2  0  0  0  0  0  0  0  0  0
    0.1760   -0.2240    5.0450 C   0  0  0  0  0  0  0  0  0  0  0  0
   -0.7990   -1.6950    3.3950 O   0  0  0  0  0  0  0  0  0  0  0  0
   -0.3830   -0.4430   -5.6150 H   0  0  0  0  0  0  0  0  0  0  0  0
   -1.9400   -0.1700   -5.0460 H   0  0  0  0  0  0  0  0  0  0  0  0
    3.2710   -0.4790   -2.7030 H   0  0  0  0  0  0  0  0  0  0  0  0
    3.0510   -0.2130   -1.0590 H   0  0  0  0  0  0  0  0  0  0  0  0
    1.7330   -0.4510    0.2830 H   0  0  0  0  0  0  0  0  0  0  0  0
   -2.7580    0.4320   -0.4600 H   0  0  0  0  0  0  0  0  0  0  0  0
   -0.2990   -1.1340    1.0930 H   0  0  0  0  0  0  0  0  0  0  0  0
   -1.9710    0.6110    1.7840 H   0  0  0  0  0  0  0  0  0  0  0  0
   -0.9370    1.8560    1.0290 H   0  0  0  0  0  0  0  0  0  0  0  0
    1.4910   -0.4340    2.7110 H   0  0  0  0  0  0  0  0  0  0  0  0
   -0.0040    1.9880    2.6870 H   0  0  0  0  0  0  0  0  0  0  0  0
   -1.3360    0.2890    3.5990 H   0  0  0  0  0  0  0  0  0  0  0  0
   -0.5440   -0.5580    5.7910 H   0  0  0  0  0  0  0  0  0  0  0  0
    1.0680   -0.8480    5.0960 H   0  0  0  0  0  0  0  0  0  0  0  0
    0.4470    0.8130    5.2400 H   0  0  0  0  0  0  0  0  0  0  0  0
    0.0150   -2.2120    3.4500 H   0  0  0  0  0  0  0  0  0  0  0  0
  1  2  2  0  0  0  0
  1  8  1  0  0  0  0
  2  3  1  0  0  0  0
  2  4  1  0  0  0  0
  3 18  1  0  0  0  0
  3 19  1  0  0  0  0
  4  5  2  0  0  0  0
  5  6  1  0  0  0  0
  5  7  1  0  0  0  0
  6 20  1  0  0  0  0
  6 21  1  0  0  0  0
  7  8  2  0  0  0  0
  7  9  1  0  0  0  0
  8 10  1  0  0  0  0
  9 11  1  0  0  0  0
  9 22  1  0  0  0  0
 10 12  1  0  0  0  0
 10 23  1  0  0  0  0
 11 12  1  0  0  0  0
 11 13  1  0  0  0  0
 11 24  1  6  0  0  0
 12 25  1  0  0  0  0
 12 26  1  0  0  0  0
 13 14  1  0  0  0  0
 13 15  1  0  0  0  0
 13 27  1  1  0  0  0
 14 28  1  0  0  0  0
 15 16  1  0  0  0  0
 15 17  1  0  0  0  0
 15 29  1  6  0  0  0
 16 30  1  0  0  0  0
 16 31  1  0  0  0  0
 16 32  1  0  0  0  0
 17 33  1  0  0  0  0
M  END
$$$$
THL
 OpenBabel07221416063D

 55 57  0  0  1  0  0  0  0  0999 V2000
    3.9940   -0.4980   -0.0440 N   0  0  0  0  0  0  0  0  0  0  0  0
    5.4180   -0.2820   -0.3110 C   0  0  1  0  0  0  0  0  0  0  0  0
    3.2660   -1.2820   -0.8640 C   0  0  0  0  0  0  0  0  0  0  0  0
    3.7910   -1.8090   -1.8260 O   0  0  0  0  0  0  0  0  0  0  0  0
   -5.6000    0.3320   -1.4100 C   0  0  0  0  0  0  0  0  0  0  0  0
   -5.6050   -0.4410   -2.3580 O   0  0  0  0  0  0  0  0  0  0  0  0
   -5.2860   -0.1300   -0.1160 C   0  0  0  0  0  0  0  0  0  0  0  0
   -4.9810   -1.4910    0.1080 N   0  0  0  0  0  0  0  0  0  0  0  0
   -4.3250   -1.8650    1.3720 C   0  0  2  0  0  0  0  0  0  0  0  0
   -5.0240   -1.1050    2.5100 C   0  0  0  0  0  0  0  0  0  0  0  0
   -4.9740    0.3310    2.2010 N   0  0  0  0  0  0  0  0  0  0  0  0
   -5.2830    0.7550    0.9240 C   0  0  0  0  0  0  0  0  0  0  0  0
   -2.8460   -1.4790    1.3230 C   0  0  0  0  0  0  0  0  0  0  0  0
   -2.2130   -2.1140    0.1640 N   0  0  0  0  0  0  0  0  0  0  0  0
    1.8320   -1.4990   -0.5950 C   0  0  0  0  0  0  0  0  0  0  0  0
    1.0750   -2.3120   -1.4450 C   0  0  0  0  0  0  0  0  0  0  0  0
   -0.2620   -2.5130   -1.1910 C   0  0  0  0  0  0  0  0  0  0  0  0
   -0.8620   -1.9090   -0.0890 C   0  0  0  0  0  0  0  0  0  0  0  0
   -0.1120   -1.0950    0.7550 C   0  0  0  0  0  0  0  0  0  0  0  0
    1.2270   -0.8940    0.5100 C   0  0  0  0  0  0  0  0  0  0  0  0
   -6.1960    3.7920   -0.8100 N   0  0  0  0  0  0  0  0  0  0  0  0
   -5.8930    1.6300   -1.5920 N   0  0  0  0  0  0  0  0  0  0  0  0
   -5.5860    2.0700    0.6800 N   0  0  0  0  0  0  0  0  0  0  0  0
   -5.8900    2.4750   -0.5830 C   0  0  0  0  0  0  0  0  0  0  0  0
    5.8580    1.0450    0.3100 C   0  0  0  0  0  0  0  0  0  0  0  0
    5.1360    2.1990   -0.3880 C   0  0  0  0  0  0  0  0  0  0  0  0
    5.5690    3.5060    0.2240 C   0  0  0  0  0  0  0  0  0  0  0  0
    5.0610    4.6620   -0.2320 O   0  0  0  0  0  0  0  0  0  0  0  0
    6.3730    3.5140    1.1260 O   0  0  0  0  0  0  0  0  0  0  0  0
    6.2190   -1.4080    0.2900 C   0  0  0  0  0  0  0  0  0  0  0  0
    5.6570   -2.3000    0.8820 O   0  0  0  0  0  0  0  0  0  0  0  0
    7.5560   -1.4210    0.1690 O   0  0  0  0  0  0  0  0  0  0  0  0
    3.5750   -0.0770    0.7230 H   0  0  0  0  0  0  0  0  0  0  0  0
    5.5850   -0.2520   -1.3880 H   0  0  0  0  0  0  0  0  0  0  0  0
   -5.1990   -2.1630   -0.5550 H   0  0  0  0  0  0  0  0  0  0  0  0
   -4.4210   -2.9390    1.5330 H   0  0  0  0  0  0  0  0  0  0  0  0
   -4.5080   -1.2970    3.4510 H   0  0  0  0  0  0  0  0  0  0  0  0
   -6.0620   -1.4300    2.5860 H   0  0  0  0  0  0  0  0  0  0  0  0
   -4.7270    0.9720    2.8850 H   0  0  0  0  0  0  0  0  0  0  0  0
   -2.7560   -0.3960    1.2380 H   0  0  0  0  0  0  0  0  0  0  0  0
   -2.3530   -1.8150    2.2360 H   0  0  0  0  0  0  0  0  0  0  0  0
   -2.7370   -2.6780   -0.4260 H   0  0  0  0  0  0  0  0  0  0  0  0
    1.5400   -2.7810   -2.2990 H   0  0  0  0  0  0  0  0  0  0  0  0
   -0.8470   -3.1410   -1.8470 H   0  0  0  0  0  0  0  0  0  0  0  0
   -0.5800   -0.6270    1.6090 H   0  0  0  0  0  0  0  0  0  0  0  0
    1.8090   -0.2660    1.1690 H   0  0  0  0  0  0  0  0  0  0  0  0
   -6.4100    4.0930   -1.7070 H   0  0  0  0  0  0  0  0  0  0  0  0
   -6.2010    4.4230   -0.0730 H   0  0  0  0  0  0  0  0  0  0  0  0
   -5.5900    2.7100    1.4090 H   0  0  0  0  0  0  0  0  0  0  0  0
    5.6090    1.0490    1.3710 H   0  0  0  0  0  0  0  0  0  0  0  0
    6.9350    1.1640    0.1890 H   0  0  0  0  0  0  0  0  0  0  0  0
    5.3840    2.1950   -1.4490 H   0  0  0  0  0  0  0  0  0  0  0  0
    4.0590    2.0800   -0.2660 H   0  0  0  0  0  0  0  0  0  0  0  0
    5.3390    5.5010    0.1600 H   0  0  0  0  0  0  0  0  0  0  0  0
    8.0690   -2.1430    0.5550 H   0  0  0  0  0  0  0  0  0  0  0  0
  1  2  1  0  0  0  0
  1  3  1  0  0  0  0
  1 33  1  0  0  0  0
  2 25  1  0  0  0  0
  2 30  1  0  0  0  0
  2 34  1  6  0  0  0
  3  4  2  0  0  0  0
  3 15  1  0  0  0  0
  5  6  2  0  0  0  0
  5  7  1  0  0  0  0
  5 22  1  0  0  0  0
  7  8  1  0  0  0  0
  7 12  2  0  0  0  0
  8  9  1  0  0  0  0
  8 35  1  0  0  0  0
  9 10  1  0  0  0  0
  9 13  1  0  0  0  0
  9 36  1  1  0  0  0
 10 11  1  0  0  0  0
 10 37  1  0  0  0  0
 10 38  1  0  0  0  0
 11 12  1  0  0  0  0
 11 39  1  0  0  0  0
 12 23  1  0  0  0  0
 13 14  1  0  0  0  0
 13 40  1  0  0  0  0
 13 41  1  0  0  0  0
 14 18  1  0  0  0  0
 14 42  1  0  0  0  0
 15 16  2  0  0  0  0
 15 20  1  0  0  0  0
 16 17  1  0  0  0  0
 16 43  1  0  0  0  0
 17 18  2  0  0  0  0
 17 44  1  0  0  0  0
 18 19  1  0  0  0  0
 19 20  2  0  0  0  0
 19 45  1  0  0  0  0
 20 46  1  0  0  0  0
 21 24  1  0  0  0  0
 21 47  1  0  0  0  0
 21 48  1  0  0  0  0
 22 24  2  0  0  0  0
 23 24  1  0  0  0  0
 23 49  1  0  0  0  0
 25 26  1  0  0  0  0
 25 50  1  0  0  0  0
 25 51  1  0  0  0  0
 26 27  1  0  0  0  0
 26 52  1  0  0  0  0
 26 53  1  0  0  0  0
 27 28  1  0  0  0  0
 27 29  2  0  0  0  0
 28 54  1  0  0  0  0
 30 31  2  0  0  0  0
 30 32  1  0  0  0  0
 32 55  1  0  0  0  0
M  END
$$$$
THG
 OpenBabel07221416063D

 55 57  0  0  1  0  0  0  0  0999 V2000
    1.7630    1.4420    5.8580 N   0  0  0  0  0  0  0  0  0  0  0  0
    2.5100    0.3040    5.8440 C   0  0  0  0  0  0  0  0  0  0  0  0
    1.9800   -0.8650    5.5580 N   0  0  0  0  0  0  0  0  0  0  0  0
    0.6800   -0.9790    5.2630 C   0  0  0  0  0  0  0  0  0  0  0  0
   -0.1240    0.1510    5.2610 C   0  0  0  0  0  0  0  0  0  0  0  0
    0.4460    1.3920    5.5660 C   0  0  0  0  0  0  0  0  0  0  0  0
    0.1330   -2.2150    4.9560 N   0  0  0  0  0  0  0  0  0  0  0  0
   -1.3250   -2.3840    5.0100 C   0  0  0  0  0  0  0  0  0  0  0  0
   -1.9770   -1.1860    4.3030 C   0  0  1  0  0  0  0  0  0  0  0  0
   -1.4980    0.0430    4.9550 N   0  0  0  0  0  0  0  0  0  0  0  0
   -1.5770   -1.1770    2.8260 C   0  0  0  0  0  0  0  0  0  0  0  0
   -2.1740   -0.0140    2.1650 N   0  0  0  0  0  0  0  0  0  0  0  0
   -1.9500    0.2070    0.8110 C   0  0  0  0  0  0  0  0  0  0  0  0
   -2.5180    1.3130    0.1850 C   0  0  0  0  0  0  0  0  0  0  0  0
   -2.2980    1.5350   -1.1540 C   0  0  0  0  0  0  0  0  0  0  0  0
   -1.5030    0.6480   -1.8870 C   0  0  0  0  0  0  0  0  0  0  0  0
   -0.9340   -0.4600   -1.2550 C   0  0  0  0  0  0  0  0  0  0  0  0
   -1.1530   -0.6740    0.0860 C   0  0  0  0  0  0  0  0  0  0  0  0
   -1.2660    0.8830   -3.3240 C   0  0  0  0  0  0  0  0  0  0  0  0
   -0.5000    0.0270   -4.0290 N   0  0  0  0  0  0  0  0  0  0  0  0
   -0.2640    0.2610   -5.4560 C   0  0  2  0  0  0  0  0  0  0  0  0
   -1.3340   -0.4290   -6.2610 C   0  0  0  0  0  0  0  0  0  0  0  0
   -1.9080   -1.5490   -5.7940 O   0  0  0  0  0  0  0  0  0  0  0  0
   -1.6760    0.0240   -7.3270 O   0  0  0  0  0  0  0  0  0  0  0  0
    1.1060   -0.2970   -5.8440 C   0  0  0  0  0  0  0  0  0  0  0  0
    2.1920    0.4040   -5.0270 C   0  0  0  0  0  0  0  0  0  0  0  0
    3.5420   -0.1450   -5.4100 C   0  0  0  0  0  0  0  0  0  0  0  0
    3.6260   -1.0090   -6.2500 O   0  0  0  0  0  0  0  0  0  0  0  0
    4.6510    0.3240   -4.8170 O   0  0  0  0  0  0  0  0  0  0  0  0
   -1.7620    1.8480   -3.8720 O   0  0  0  0  0  0  0  0  0  0  0  0
   -0.2330    2.4070    5.5720 O   0  0  0  0  0  0  0  0  0  0  0  0
    3.8480    0.3780    6.1400 N   0  0  0  0  0  0  0  0  0  0  0  0
    2.1800    2.2910    6.0720 H   0  0  0  0  0  0  0  0  0  0  0  0
    0.7050   -2.9590    4.7110 H   0  0  0  0  0  0  0  0  0  0  0  0
   -1.6530   -2.4200    6.0480 H   0  0  0  0  0  0  0  0  0  0  0  0
   -1.6070   -3.3070    4.5030 H   0  0  0  0  0  0  0  0  0  0  0  0
   -3.0610   -1.2510    4.3900 H   0  0  0  0  0  0  0  0  0  0  0  0
   -2.1130    0.7620    5.1700 H   0  0  0  0  0  0  0  0  0  0  0  0
   -0.4910   -1.1240    2.7440 H   0  0  0  0  0  0  0  0  0  0  0  0
   -1.9330   -2.0890    2.3480 H   0  0  0  0  0  0  0  0  0  0  0  0
   -2.7250    0.6010    2.6730 H   0  0  0  0  0  0  0  0  0  0  0  0
   -3.1320    1.9970    0.7510 H   0  0  0  0  0  0  0  0  0  0  0  0
   -2.7390    2.3930   -1.6400 H   0  0  0  0  0  0  0  0  0  0  0  0
   -0.3200   -1.1470   -1.8190 H   0  0  0  0  0  0  0  0  0  0  0  0
   -0.7140   -1.5310    0.5740 H   0  0  0  0  0  0  0  0  0  0  0  0
   -0.1040   -0.7420   -3.5920 H   0  0  0  0  0  0  0  0  0  0  0  0
   -0.2910    1.3310   -5.6590 H   0  0  0  0  0  0  0  0  0  0  0  0
   -2.5950   -1.9930   -6.3110 H   0  0  0  0  0  0  0  0  0  0  0  0
    1.1330   -1.3670   -5.6420 H   0  0  0  0  0  0  0  0  0  0  0  0
    1.2810   -0.1230   -6.9060 H   0  0  0  0  0  0  0  0  0  0  0  0
    2.1650    1.4740   -5.2300 H   0  0  0  0  0  0  0  0  0  0  0  0
    2.0170    0.2300   -3.9650 H   0  0  0  0  0  0  0  0  0  0  0  0
    5.5170   -0.0280   -5.0620 H   0  0  0  0  0  0  0  0  0  0  0  0
    4.3900   -0.4250    6.1380 H   0  0  0  0  0  0  0  0  0  0  0  0
    4.2520    1.2350    6.3490 H   0  0  0  0  0  0  0  0  0  0  0  0
  1  2  1  0  0  0  0
  1  6  1  0  0  0  0
  1 33  1  0  0  0  0
  2  3  2  0  0  0  0
  2 32  1  0  0  0  0
  3  4  1  0  0  0  0
  4  5  2  0  0  0  0
  4  7  1  0  0  0  0
  5  6  1  0  0  0  0
  5 10  1  0  0  0  0
  6 31  2  0  0  0  0
  7  8  1  0  0  0  0
  7 34  1  0  0  0  0
  8  9  1  0  0  0  0
  8 35  1  0  0  0  0
  8 36  1  0  0  0  0
  9 10  1  0  0  0  0
  9 11  1  0  0  0  0
  9 37  1  1  0  0  0
 10 38  1  0  0  0  0
 11 12  1  0  0  0  0
 11 39  1  0  0  0  0
 11 40  1  0  0  0  0
 12 13  1  0  0  0  0
 12 41  1  0  0  0  0
 13 14  2  0  0  0  0
 13 18  1  0  0  0  0
 14 15  1  0  0  0  0
 14 42  1  0  0  0  0
 15 16  2  0  0  0  0
 15 43  1  0  0  0  0
 16 17  1  0  0  0  0
 16 19  1  0  0  0  0
 17 18  2  0  0  0  0
 17 44  1  0  0  0  0
 18 45  1  0  0  0  0
 19 20  1  0  0  0  0
 19 30  2  0  0  0  0
 20 21  1  0  0  0  0
 20 46  1  0  0  0  0
 21 22  1  0  0  0  0
 21 25  1  0  0  0  0
 21 47  1  6  0  0  0
 22 23  1  0  0  0  0
 22 24  2  0  0  0  0
 23 48  1  0  0  0  0
 25 26  1  0  0  0  0
 25 49  1  0  0  0  0
 25 50  1  0  0  0  0
 26 27  1  0  0  0  0
 26 51  1  0  0  0  0
 26 52  1  0  0  0  0
 27 28  2  0  0  0  0
 27 29  1  0  0  0  0
 29 53  1  0  0  0  0
 32 54  1  0  0  0  0
 32 55  1  0  0  0  0
M  END
$$$$
C2F
 OpenBabel07221416063D

 58 60  0  0  1  0  0  0  0  0999 V2000
    2.1930   -0.8900    5.3440 N   0  0  0  0  0  0  0  0  0  0  0  0
    2.6960    0.2900    5.6360 C   0  0  0  0  0  0  0  0  0  0  0  0
    4.0360    0.3970    5.9110 N   0  0  0  0  0  0  0  0  0  0  0  0
    1.9210    1.4080    5.6660 N   0  0  0  0  0  0  0  0  0  0  0  0
    0.5990    1.3260    5.4010 C   0  0  0  0  0  0  0  0  0  0  0  0
   -0.1060    2.3230    5.4270 O   0  0  0  0  0  0  0  0  0  0  0  0
    0.0570    0.0730    5.0950 C   0  0  0  0  0  0  0  0  0  0  0  0
   -1.3200   -0.0720    4.8210 N   0  0  0  0  0  0  0  0  0  0  0  0
   -1.7780   -1.3090    4.1680 C   0  0  2  0  0  0  0  0  0  0  0  0
   -1.0800   -2.4940    4.8520 C   0  0  0  0  0  0  0  0  0  0  0  0
    0.3720   -2.2850    4.7700 N   0  0  0  0  0  0  0  0  0  0  0  0
    0.8910   -1.0370    5.0750 C   0  0  0  0  0  0  0  0  0  0  0  0
   -1.4100   -1.2770    2.6840 C   0  0  0  0  0  0  0  0  0  0  0  0
   -2.0530   -0.1250    2.0460 N   0  0  0  0  0  0  0  0  0  0  0  0
   -2.2700    0.9850    5.1730 C   0  0  0  0  0  0  0  0  0  0  0  0
   -1.4860    0.5880   -2.0140 C   0  0  0  0  0  0  0  0  0  0  0  0
   -2.2890    1.4470   -1.2570 C   0  0  0  0  0  0  0  0  0  0  0  0
   -2.4750    1.2080    0.0850 C   0  0  0  0  0  0  0  0  0  0  0  0
   -1.8630    0.1130    0.6890 C   0  0  0  0  0  0  0  0  0  0  0  0
   -1.0580   -0.7400   -0.0600 C   0  0  0  0  0  0  0  0  0  0  0  0
   -0.8740   -0.5090   -1.4040 C   0  0  0  0  0  0  0  0  0  0  0  0
   -1.2860    0.8410   -3.4530 C   0  0  0  0  0  0  0  0  0  0  0  0
   -1.8190    1.7970   -3.9830 O   0  0  0  0  0  0  0  0  0  0  0  0
   -0.5110    0.0130   -4.1810 N   0  0  0  0  0  0  0  0  0  0  0  0
   -0.3120    0.2640   -5.6110 C   0  0  1  0  0  0  0  0  0  0  0  0
    1.0640   -0.2520   -6.0330 C   0  0  0  0  0  0  0  0  0  0  0  0
    2.1480    0.4720   -5.2320 C   0  0  0  0  0  0  0  0  0  0  0  0
    3.5040   -0.0360   -5.6470 C   0  0  0  0  0  0  0  0  0  0  0  0
    3.5940   -0.8910   -6.4970 O   0  0  0  0  0  0  0  0  0  0  0  0
    4.6120    0.4590   -5.0740 O   0  0  0  0  0  0  0  0  0  0  0  0
   -1.3800   -0.4480   -6.4000 C   0  0  0  0  0  0  0  0  0  0  0  0
   -1.7560    0.0040   -7.4540 O   0  0  0  0  0  0  0  0  0  0  0  0
   -1.9120   -1.5880   -5.9310 O   0  0  0  0  0  0  0  0  0  0  0  0
    4.5990   -0.3920    5.8930 H   0  0  0  0  0  0  0  0  0  0  0  0
    4.4200    1.2610    6.1240 H   0  0  0  0  0  0  0  0  0  0  0  0
    2.3190    2.2670    5.8790 H   0  0  0  0  0  0  0  0  0  0  0  0
   -2.8590   -1.4050    4.2780 H   0  0  0  0  0  0  0  0  0  0  0  0
   -1.3850   -2.5470    5.8970 H   0  0  0  0  0  0  0  0  0  0  0  0
   -1.3470   -3.4200    4.3430 H   0  0  0  0  0  0  0  0  0  0  0  0
    0.9590   -3.0110    4.5070 H   0  0  0  0  0  0  0  0  0  0  0  0
   -0.3280   -1.1930    2.5790 H   0  0  0  0  0  0  0  0  0  0  0  0
   -1.7510   -2.1950    2.2050 H   0  0  0  0  0  0  0  0  0  0  0  0
   -2.6100    0.4700    2.5700 H   0  0  0  0  0  0  0  0  0  0  0  0
   -2.0560    1.8770    4.5850 H   0  0  0  0  0  0  0  0  0  0  0  0
   -3.2850    0.6460    4.9630 H   0  0  0  0  0  0  0  0  0  0  0  0
   -2.1780    1.2190    6.2340 H   0  0  0  0  0  0  0  0  0  0  0  0
   -2.7640    2.2960   -1.7250 H   0  0  0  0  0  0  0  0  0  0  0  0
   -3.0950    1.8700    0.6700 H   0  0  0  0  0  0  0  0  0  0  0  0
   -0.5850   -1.5880    0.4110 H   0  0  0  0  0  0  0  0  0  0  0  0
   -0.2530   -1.1740   -1.9860 H   0  0  0  0  0  0  0  0  0  0  0  0
   -0.0850   -0.7490   -3.7590 H   0  0  0  0  0  0  0  0  0  0  0  0
   -0.3730    1.3350   -5.8040 H   0  0  0  0  0  0  0  0  0  0  0  0
    1.1250   -1.3230   -5.8400 H   0  0  0  0  0  0  0  0  0  0  0  0
    1.2120   -0.0650   -7.0960 H   0  0  0  0  0  0  0  0  0  0  0  0
    2.0870    1.5430   -5.4250 H   0  0  0  0  0  0  0  0  0  0  0  0
    2.0000    0.2850   -4.1680 H   0  0  0  0  0  0  0  0  0  0  0  0
    5.4820    0.1320   -5.3400 H   0  0  0  0  0  0  0  0  0  0  0  0
   -2.5970   -2.0460   -6.4370 H   0  0  0  0  0  0  0  0  0  0  0  0
  1  2  2  0  0  0  0
  1 12  1  0  0  0  0
  2  3  1  0  0  0  0
  2  4  1  0  0  0  0
  3 34  1  0  0  0  0
  3 35  1  0  0  0  0
  4  5  1  0  0  0  0
  4 36  1  0  0  0  0
  5  6  2  0  0  0  0
  5  7  1  0  0  0  0
  7  8  1  0  0  0  0
  7 12  2  0  0  0  0
  8  9  1  0  0  0  0
  8 15  1  0  0  0  0
  9 10  1  0  0  0  0
  9 13  1  0  0  0  0
  9 37  1  1  0  0  0
 10 11  1  0  0  0  0
 10 38  1  0  0  0  0
 10 39  1  0  0  0  0
 11 12  1  0  0  0  0
 11 40  1  0  0  0  0
 13 14  1  0  0  0  0
 13 41  1  0  0  0  0
 13 42  1  0  0  0  0
 14 19  1  0  0  0  0
 14 43  1  0  0  0  0
 15 44  1  0  0  0  0
 15 45  1  0  0  0  0
 15 46  1  0  0  0  0
 16 17  2  0  0  0  0
 16 21  1  0  0  0  0
 16 22  1  0  0  0  0
 17 18  1  0  0  0  0
 17 47  1  0  0  0  0
 18 19  2  0  0  0  0
 18 48  1  0  0  0  0
 19 20  1  0  0  0  0
 20 21  2  0  0  0  0
 20 49  1  0  0  0  0
 21 50  1  0  0  0  0
 22 23  2  0  0  0  0
 22 24  1  0  0  0  0
 24 25  1  0  0  0  0
 24 51  1  0  0  0  0
 25 26  1  0  0  0  0
 25 31  1  0  0  0  0
 25 52  1  6  0  0  0
 26 27  1  0  0  0  0
 26 53  1  0  0  0  0
 26 54  1  0  0  0  0
 27 28  1  0  0  0  0
 27 55  1  0  0  0  0
 27 56  1  0  0  0  0
 28 29  2  0  0  0  0
 28 30  1  0  0  0  0
 30 57  1  0  0  0  0
 31 32  2  0  0  0  0
 31 33  1  0  0  0  0
 33 58  1  0  0  0  0
M  END
$$$$
1YJ
 OpenBabel07221416063D

 55 57  0  0  1  0  0  0  0  0999 V2000
    5.7750   -2.5380   -0.2030 N   0  0  0  0  0  0  0  0  0  0  0  0
    6.2510   -1.9790   -1.3490 C   0  0  0  0  0  0  0  0  0  0  0  0
    6.2570   -0.6760   -1.5310 N   0  0  0  0  0  0  0  0  0  0  0  0
    5.7910    0.1530   -0.5890 C   0  0  0  0  0  0  0  0  0  0  0  0
    5.2970   -0.3670    0.5990 C   0  0  0  0  0  0  0  0  0  0  0  0
    5.2890   -1.7540    0.7830 C   0  0  0  0  0  0  0  0  0  0  0  0
    5.8000    1.5240   -0.7910 N   0  0  0  0  0  0  0  0  0  0  0  0
    5.6560    2.4180    0.3670 C   0  0  0  0  0  0  0  0  0  0  0  0
    4.5090    1.8930    1.2430 C   0  0  2  0  0  0  0  0  0  0  0  0
    4.8080    0.4980    1.6020 N   0  0  0  0  0  0  0  0  0  0  0  0
    3.1950    1.9500    0.4630 C   0  0  0  0  0  0  0  0  0  0  0  0
    2.1270    1.3380    1.2590 N   0  0  0  0  0  0  0  0  0  0  0  0
    0.8340    1.2730    0.7540 C   0  0  0  0  0  0  0  0  0  0  0  0
    0.5550    1.7850   -0.5110 C   0  0  0  0  0  0  0  0  0  0  0  0
   -0.7250    1.7220   -1.0130 C   0  0  0  0  0  0  0  0  0  0  0  0
   -1.7450    1.1440   -0.2530 C   0  0  0  0  0  0  0  0  0  0  0  0
   -1.4620    0.6320    1.0170 C   0  0  0  0  0  0  0  0  0  0  0  0
   -0.1800    0.6920    1.5110 C   0  0  0  0  0  0  0  0  0  0  0  0
   -3.1180    1.0760   -0.7880 C   0  0  0  0  0  0  0  0  0  0  0  0
   -4.1010    0.5180   -0.0540 N   0  0  0  0  0  0  0  0  0  0  0  0
   -5.4640    0.4510   -0.5860 C   0  0  2  0  0  0  0  0  0  0  0  0
   -6.1810    1.7450   -0.2980 C   0  0  0  0  0  0  0  0  0  0  0  0
   -7.4520    1.9110   -0.6960 O   0  0  0  0  0  0  0  0  0  0  0  0
   -5.6110    2.6330    0.2910 O   0  0  0  0  0  0  0  0  0  0  0  0
   -6.2140   -0.7060    0.0780 C   0  0  0  0  0  0  0  0  0  0  0  0
   -5.5590   -2.0310   -0.3160 C   0  0  0  0  0  0  0  0  0  0  0  0
   -6.2980   -3.1710    0.3380 C   0  0  0  0  0  0  0  0  0  0  0  0
   -7.2500   -2.9450    1.0470 O   0  0  0  0  0  0  0  0  0  0  0  0
   -5.8970   -4.4350    0.1340 O   0  0  0  0  0  0  0  0  0  0  0  0
   -3.3630    1.5230   -1.8920 O   0  0  0  0  0  0  0  0  0  0  0  0
    4.8590   -2.2440    1.8170 O   0  0  0  0  0  0  0  0  0  0  0  0
    6.7380   -2.7950   -2.3390 N   0  0  0  0  0  0  0  0  0  0  0  0
    6.5820    2.4270    0.9420 H   0  0  0  0  0  0  0  0  0  0  0  0
    5.4250    3.4270    0.0260 H   0  0  0  0  0  0  0  0  0  0  0  0
    4.4290    2.4980    2.1460 H   0  0  0  0  0  0  0  0  0  0  0  0
    4.6780    0.1810    2.5100 H   0  0  0  0  0  0  0  0  0  0  0  0
    2.9410    2.9890    0.2530 H   0  0  0  0  0  0  0  0  0  0  0  0
    1.3440    2.2320   -1.0970 H   0  0  0  0  0  0  0  0  0  0  0  0
   -0.9400    2.1200   -1.9940 H   0  0  0  0  0  0  0  0  0  0  0  0
   -2.2490    0.1850    1.6070 H   0  0  0  0  0  0  0  0  0  0  0  0
    0.0410    0.2920    2.4900 H   0  0  0  0  0  0  0  0  0  0  0  0
   -3.9060    0.1620    0.8270 H   0  0  0  0  0  0  0  0  0  0  0  0
   -5.4260    0.2880   -1.6630 H   0  0  0  0  0  0  0  0  0  0  0  0
   -7.8700    2.7580   -0.4890 H   0  0  0  0  0  0  0  0  0  0  0  0
   -6.1750   -0.5900    1.1610 H   0  0  0  0  0  0  0  0  0  0  0  0
   -7.2530   -0.7020   -0.2510 H   0  0  0  0  0  0  0  0  0  0  0  0
   -5.5980   -2.1480   -1.3990 H   0  0  0  0  0  0  0  0  0  0  0  0
   -4.5200   -2.0350    0.0130 H   0  0  0  0  0  0  0  0  0  0  0  0
   -6.4020   -5.1320    0.5750 H   0  0  0  0  0  0  0  0  0  0  0  0
    6.7390   -3.7570   -2.2180 H   0  0  0  0  0  0  0  0  0  0  0  0
    7.0800   -2.4090   -3.1610 H   0  0  0  0  0  0  0  0  0  0  0  0
    5.7810   -3.5020   -0.0960 H   0  0  0  0  0  0  0  0  0  0  0  0
    5.9010    1.8890   -1.6840 H   0  0  0  0  0  0  0  0  0  0  0  0
    3.3050    1.4060   -0.4750 H   0  0  0  0  0  0  0  0  0  0  0  0
    2.3230    0.9790    2.1380 H   0  0  0  0  0  0  0  0  0  0  0  0
  1 52  1  0  0  0  0
  2  1  1  0  0  0  0
  2 32  1  0  0  0  0
  3  2  2  0  0  0  0
  4  5  2  0  0  0  0
  4  3  1  0  0  0  0
  5  6  1  0  0  0  0
  6  1  1  0  0  0  0
  6 31  2  0  0  0  0
  7  4  1  0  0  0  0
  7 53  1  0  0  0  0
  8  7  1  0  0  0  0
  8  9  1  0  0  0  0
  8 33  1  0  0  0  0
  8 34  1  0  0  0  0
  9 10  1  0  0  0  0
  9 11  1  0  0  0  0
  9 35  1  1  0  0  0
 10  5  1  0  0  0  0
 10 36  1  0  0  0  0
 11 37  1  0  0  0  0
 11 54  1  0  0  0  0
 12 11  1  0  0  0  0
 12 13  1  0  0  0  0
 12 55  1  0  0  0  0
 13 18  1  0  0  0  0
 14 13  2  0  0  0  0
 14 15  1  0  0  0  0
 14 38  1  0  0  0  0
 15 16  2  0  0  0  0
 15 39  1  0  0  0  0
 16 17  1  0  0  0  0
 16 19  1  0  0  0  0
 17 40  1  0  0  0  0
 18 17  2  0  0  0  0
 18 41  1  0  0  0  0
 19 20  1  0  0  0  0
 20 21  1  0  0  0  0
 20 42  1  0  0  0  0
 21 22  1  0  0  0  0
 21 25  1  0  0  0  0
 21 43  1  6  0  0  0
 22 24  2  0  0  0  0
 22 23  1  0  0  0  0
 23 44  1  0  0  0  0
 25 45  1  0  0  0  0
 25 46  1  0  0  0  0
 26 25  1  0  0  0  0
 26 27  1  0  0  0  0
 26 47  1  0  0  0  0
 26 48  1  0  0  0  0
 27 29  1  0  0  0  0
 28 27  2  0  0  0  0
 29 49  1  0  0  0  0
 30 19  2  0  0  0  0
 32 50  1  0  0  0  0
 32 51  1  0  0  0  0
M  END
$$$$
1YA
 OpenBabel07221416063D

 57 59  0  0  1  0  0  0  0  0999 V2000
   -7.0120   -1.4060   -0.5390 N   0  0  0  0  0  0  0  0  0  0  0  0
   -7.7720   -0.3320   -0.5790 C   0  0  0  0  0  0  0  0  0  0  0  0
   -9.0090   -0.4090   -1.1680 N   0  0  0  0  0  0  0  0  0  0  0  0
   -7.3610    0.8530   -0.0500 N   0  0  0  0  0  0  0  0  0  0  0  0
   -6.1480    0.9500    0.5360 C   0  0  0  0  0  0  0  0  0  0  0  0
   -5.7690    2.0080    1.0170 O   0  0  0  0  0  0  0  0  0  0  0  0
   -5.3350   -0.1880    0.5820 C   0  0  0  0  0  0  0  0  0  0  0  0
   -4.0600   -0.1410    1.1860 N   0  0  0  0  0  0  0  0  0  0  0  0
   -3.1110   -1.2310    0.9060 C   0  0  1  0  0  0  0  0  0  0  0  0
   -3.8740   -2.5600    0.9950 C   0  0  0  0  0  0  0  0  0  0  0  0
   -5.0060   -2.5070    0.0600 N   0  0  0  0  0  0  0  0  0  0  0  0
   -5.8000   -1.3710    0.0260 C   0  0  0  0  0  0  0  0  0  0  0  0
   -2.5290   -1.0620   -0.4980 C   0  0  0  0  0  0  0  0  0  0  0  0
   -1.9350    0.2710   -0.6240 N   0  0  0  0  0  0  0  0  0  0  0  0
    2.0710    0.8670    0.3510 C   0  0  0  0  0  0  0  0  0  0  0  0
    1.0660    1.4410    1.1350 C   0  0  0  0  0  0  0  0  0  0  0  0
   -0.2560    1.2420    0.8100 C   0  0  0  0  0  0  0  0  0  0  0  0
   -0.5940    0.4710   -0.2980 C   0  0  0  0  0  0  0  0  0  0  0  0
    0.4040   -0.1020   -1.0800 C   0  0  0  0  0  0  0  0  0  0  0  0
    1.7290    0.0970   -0.7640 C   0  0  0  0  0  0  0  0  0  0  0  0
    3.4900    1.0780    0.6970 C   0  0  0  0  0  0  0  0  0  0  0  0
    4.4580    0.5240   -0.0600 N   0  0  0  0  0  0  0  0  0  0  0  0
    5.8670    0.7330    0.2830 C   0  0  1  0  0  0  0  0  0  0  0  0
    6.7040   -0.4210   -0.2720 C   0  0  0  0  0  0  0  0  0  0  0  0
    6.3060   -1.7220    0.4280 C   0  0  0  0  0  0  0  0  0  0  0  0
    7.1300   -2.8590   -0.1180 C   0  0  0  0  0  0  0  0  0  0  0  0
    6.9520   -4.1040    0.3520 O   0  0  0  0  0  0  0  0  0  0  0  0
    7.9520   -2.6510   -0.9790 O   0  0  0  0  0  0  0  0  0  0  0  0
    6.3420    2.0320   -0.3170 C   0  0  0  0  0  0  0  0  0  0  0  0
    5.5820    2.7120   -0.9640 O   0  0  0  0  0  0  0  0  0  0  0  0
    7.6100    2.4320   -0.1310 O   0  0  0  0  0  0  0  0  0  0  0  0
   -2.6840    1.3050   -1.0550 C   0  0  0  0  0  0  0  0  0  0  0  0
   -2.1720    2.3880   -1.2440 O   0  0  0  0  0  0  0  0  0  0  0  0
    3.7870    1.7520    1.6650 O   0  0  0  0  0  0  0  0  0  0  0  0
   -9.3130   -1.2470   -1.5480 H   0  0  0  0  0  0  0  0  0  0  0  0
   -9.5780    0.3760   -1.2040 H   0  0  0  0  0  0  0  0  0  0  0  0
   -7.9400    1.6300   -0.0950 H   0  0  0  0  0  0  0  0  0  0  0  0
   -3.8140    0.5930    1.7710 H   0  0  0  0  0  0  0  0  0  0  0  0
   -2.3070   -1.2170    1.6420 H   0  0  0  0  0  0  0  0  0  0  0  0
   -3.2120   -3.3830    0.7240 H   0  0  0  0  0  0  0  0  0  0  0  0
   -4.2430   -2.7050    2.0110 H   0  0  0  0  0  0  0  0  0  0  0  0
   -1.7620   -1.8190   -0.6680 H   0  0  0  0  0  0  0  0  0  0  0  0
   -3.3220   -1.1770   -1.2370 H   0  0  0  0  0  0  0  0  0  0  0  0
    1.3280    2.0400    1.9950 H   0  0  0  0  0  0  0  0  0  0  0  0
   -1.0330    1.6850    1.4160 H   0  0  0  0  0  0  0  0  0  0  0  0
    0.1390   -0.6970   -1.9420 H   0  0  0  0  0  0  0  0  0  0  0  0
    2.5030   -0.3470   -1.3720 H   0  0  0  0  0  0  0  0  0  0  0  0
    4.2210   -0.0140   -0.8320 H   0  0  0  0  0  0  0  0  0  0  0  0
    5.9750    0.7720    1.3670 H   0  0  0  0  0  0  0  0  0  0  0  0
    6.5270   -0.5160   -1.3430 H   0  0  0  0  0  0  0  0  0  0  0  0
    7.7600   -0.2220   -0.0940 H   0  0  0  0  0  0  0  0  0  0  0  0
    6.4830   -1.6270    1.5000 H   0  0  0  0  0  0  0  0  0  0  0  0
    5.2490   -1.9220    0.2510 H   0  0  0  0  0  0  0  0  0  0  0  0
    7.5040   -4.8000   -0.0290 H   0  0  0  0  0  0  0  0  0  0  0  0
    7.8680    3.2720   -0.5350 H   0  0  0  0  0  0  0  0  0  0  0  0
   -3.7410    1.1690   -1.2320 H   0  0  0  0  0  0  0  0  0  0  0  0
   -5.1960   -3.2570   -0.5260 H   0  0  0  0  0  0  0  0  0  0  0  0
  1  2  2  0  0  0  0
  2  4  1  0  0  0  0
  2  3  1  0  0  0  0
  3 35  1  0  0  0  0
  3 36  1  0  0  0  0
  4 37  1  0  0  0  0
  5  4  1  0  0  0  0
  5  6  2  0  0  0  0
  7  5  1  0  0  0  0
  8  7  1  0  0  0  0
  8 38  1  0  0  0  0
  9  8  1  0  0  0  0
  9 13  1  0  0  0  0
  9 39  1  1  0  0  0
 10 11  1  0  0  0  0
 10  9  1  0  0  0  0
 10 40  1  0  0  0  0
 10 41  1  0  0  0  0
 11 12  1  0  0  0  0
 11 57  1  0  0  0  0
 12  7  2  0  0  0  0
 12  1  1  0  0  0  0
 13 42  1  0  0  0  0
 13 43  1  0  0  0  0
 14 18  1  0  0  0  0
 14 13  1  0  0  0  0
 15 21  1  0  0  0  0
 15 16  2  0  0  0  0
 16 44  1  0  0  0  0
 17 16  1  0  0  0  0
 17 45  1  0  0  0  0
 18 17  2  0  0  0  0
 19 20  2  0  0  0  0
 19 18  1  0  0  0  0
 19 46  1  0  0  0  0
 20 15  1  0  0  0  0
 20 47  1  0  0  0  0
 21 22  1  0  0  0  0
 22 23  1  0  0  0  0
 22 48  1  0  0  0  0
 23 29  1  0  0  0  0
 23 24  1  0  0  0  0
 23 49  1  1  0  0  0
 24 50  1  0  0  0  0
 24 51  1  0  0  0  0
 25 24  1  0  0  0  0
 25 26  1  0  0  0  0
 25 52  1  0  0  0  0
 25 53  1  0  0  0  0
 26 27  1  0  0  0  0
 27 54  1  0  0  0  0
 28 26  2  0  0  0  0
 29 30  2  0  0  0  0
 29 31  1  0  0  0  0
 31 55  1  0  0  0  0
 32 14  1  0  0  0  0
 32 56  1  0  0  0  0
 33 32  2  0  0  0  0
 34 21  2  0  0  0  0
M  END
$$$$
AP6
 OpenBabel07221416063D

 32 34  0  0  1  0  0  0  0  0999 V2000
   -1.1750   -0.0240    2.9830 N   0  0  0  0  0  0  0  0  0  0  0  0
   -0.1590   -0.0680    3.8310 C   0  0  0  0  0  0  0  0  0  0  0  0
   -0.4150   -0.1470    5.1910 N   0  0  0  0  0  0  0  0  0  0  0  0
    1.0960   -0.0440    3.4100 N   0  0  0  0  0  0  0  0  0  0  0  0
    1.3830    0.0340    2.1150 C   0  0  0  0  0  0  0  0  0  0  0  0
    2.7050    0.0610    1.6870 N   0  0  0  0  0  0  0  0  0  0  0  0
    0.3370    0.0890    1.1860 C   0  0  0  0  0  0  0  0  0  0  0  0
   -0.9630    0.0550    1.6720 C   0  0  0  0  0  0  0  0  0  0  0  0
    0.6420    0.1820   -0.1770 N   0  0  0  0  0  0  0  0  0  0  0  0
   -0.4610   -0.3630   -0.9670 C   0  0  1  0  0  0  0  0  0  0  0  0
   -1.7560    0.3830   -0.6190 C   0  0  0  0  0  0  0  0  0  0  0  0
   -2.0470    0.0960    0.7970 N   0  0  0  0  0  0  0  0  0  0  0  0
   -0.1610   -0.1940   -2.4340 C   0  0  0  0  0  0  0  0  0  0  0  0
   -0.0780   -1.3030   -3.2550 C   0  0  0  0  0  0  0  0  0  0  0  0
    0.0240    1.0700   -2.9600 C   0  0  0  0  0  0  0  0  0  0  0  0
    0.1960   -1.1470   -4.6010 C   0  0  0  0  0  0  0  0  0  0  0  0
    0.3030    1.2250   -4.3040 C   0  0  0  0  0  0  0  0  0  0  0  0
    0.3870    0.1160   -5.1250 C   0  0  0  0  0  0  0  0  0  0  0  0
    0.3190   -0.1830    5.8220 H   0  0  0  0  0  0  0  0  0  0  0  0
   -1.3310   -0.1610    5.5120 H   0  0  0  0  0  0  0  0  0  0  0  0
    3.4260    0.0220    2.3360 H   0  0  0  0  0  0  0  0  0  0  0  0
    2.9080    0.1190    0.7410 H   0  0  0  0  0  0  0  0  0  0  0  0
    1.4380   -0.4160   -0.3380 H   0  0  0  0  0  0  0  0  0  0  0  0
   -0.5800   -1.4230   -0.7400 H   0  0  0  0  0  0  0  0  0  0  0  0
   -1.6170    1.4550   -0.7610 H   0  0  0  0  0  0  0  0  0  0  0  0
   -2.5720    0.0260   -1.2470 H   0  0  0  0  0  0  0  0  0  0  0  0
   -2.9540   -0.0570    1.1060 H   0  0  0  0  0  0  0  0  0  0  0  0
   -0.2280   -2.2910   -2.8450 H   0  0  0  0  0  0  0  0  0  0  0  0
   -0.0400    1.9370   -2.3180 H   0  0  0  0  0  0  0  0  0  0  0  0
    0.2620   -2.0140   -5.2420 H   0  0  0  0  0  0  0  0  0  0  0  0
    0.4530    2.2130   -4.7140 H   0  0  0  0  0  0  0  0  0  0  0  0
    0.6030    0.2380   -6.1770 H   0  0  0  0  0  0  0  0  0  0  0  0
  1  2  2  0  0  0  0
  1  8  1  0  0  0  0
  2  3  1  0  0  0  0
  2  4  1  0  0  0  0
  3 19  1  0  0  0  0
  3 20  1  0  0  0  0
  4  5  2  0  0  0  0
  5  6  1  0  0  0  0
  5  7  1  0  0  0  0
  6 21  1  0  0  0  0
  6 22  1  0  0  0  0
  7  8  2  0  0  0  0
  7  9  1  0  0  0  0
  8 12  1  0  0  0  0
  9 10  1  0  0  0  0
  9 23  1  0  0  0  0
 10 11  1  0  0  0  0
 10 13  1  0  0  0  0
 10 24  1  1  0  0  0
 11 12  1  0  0  0  0
 11 25  1  0  0  0  0
 11 26  1  0  0  0  0
 12 27  1  0  0  0  0
 13 14  2  0  0  0  0
 13 15  1  0  0  0  0
 14 16  1  0  0  0  0
 14 28  1  0  0  0  0
 15 17  2  0  0  0  0
 15 29  1  0  0  0  0
 16 18  2  0  0  0  0
 16 30  1  0  0  0  0
 17 18  1  0  0  0  0
 17 31  1  0  0  0  0
 18 32  1  0  0  0  0
M  END
$$$$
